Version 4
SHEET 1 880 680
WIRE 160 64 144 64
WIRE 208 64 160 64
WIRE 304 64 288 64
WIRE 160 144 160 64
WIRE 192 144 160 144
WIRE 304 160 304 64
WIRE 304 160 256 160
WIRE 192 176 64 176
FLAG 224 192 vee
FLAG 224 128 vcc
FLAG -128 224 0
FLAG -208 224 0
FLAG -208 144 vee
FLAG -128 144 vcc
FLAG -48 224 0
FLAG -48 144 voff
FLAG 64 64 voff
FLAG 64 256 0
SYMBOL Opamps\\LT1632 224 96 R0
SYMATTR InstName U1
SYMBOL voltage -208 128 R0
WINDOW 123 0 0 Left 2
WINDOW 39 0 0 Left 2
SYMATTR InstName V1
SYMATTR Value -10
SYMBOL voltage -128 128 R0
WINDOW 123 0 0 Left 2
WINDOW 39 0 0 Left 2
SYMATTR InstName V2
SYMATTR Value 10
SYMBOL res 160 48 R90
WINDOW 0 0 56 VBottom 2
WINDOW 3 32 56 VTop 2
SYMATTR InstName R1
SYMATTR Value 1k
SYMBOL res 304 48 R90
WINDOW 0 0 56 VBottom 2
WINDOW 3 32 56 VTop 2
SYMATTR InstName R2
SYMATTR Value 1k
SYMBOL voltage -48 128 R0
WINDOW 123 0 0 Left 2
WINDOW 39 0 0 Left 2
SYMATTR InstName V3
SYMATTR Value PULSE(-10 10 3m 10m 10m 1m 21m)
SYMBOL voltage 64 160 R0
WINDOW 123 0 0 Left 2
WINDOW 39 0 0 Left 2
SYMATTR InstName V4
SYMATTR Value SINE(0 1 1k)
TEXT -242 284 Left 2 !.tran 0 13m 3m
