Version 4
SHEET 1 932 680
WIRE 176 0 16 0
WIRE 320 0 176 0
WIRE 448 0 320 0
WIRE 720 0 448 0
WIRE 736 0 720 0
WIRE 176 16 176 0
WIRE 320 16 320 0
WIRE 16 80 16 0
WIRE 448 80 448 0
WIRE 720 80 720 0
WIRE -144 128 -224 128
WIRE -128 128 -144 128
WIRE -48 128 -64 128
WIRE 176 128 176 96
WIRE 320 128 320 96
WIRE 544 128 512 128
WIRE 16 176 0 176
WIRE 32 176 16 176
WIRE 112 176 32 176
WIRE 448 176 384 176
WIRE 624 176 624 128
WIRE 624 192 624 176
WIRE 240 224 240 208
WIRE 240 224 176 224
WIRE 320 224 240 224
WIRE 32 288 32 176
WIRE 240 288 240 224
WIRE 448 288 448 176
WIRE 240 368 32 368
WIRE 448 368 240 368
WIRE 240 416 240 368
FLAG 240 512 0
FLAG 240 496 0
FLAG 720 160 0
FLAG 624 176 0
FLAG -224 208 0
SYMBOL npn 112 128 R0
SYMATTR InstName Q1
SYMATTR Value t2n3904
SYMBOL npn -48 80 R0
SYMATTR InstName Q2
SYMBOL npn 384 128 M0
SYMATTR InstName Q3
SYMATTR Value t2n3904
SYMBOL npn 512 80 M0
SYMATTR InstName Q4
SYMBOL current 240 288 R0
WINDOW 123 0 0 Left 2
WINDOW 39 0 0 Left 2
SYMATTR InstName I1
SYMATTR Value 1m
SYMBOL current 448 288 R0
WINDOW 123 0 0 Left 2
WINDOW 39 0 0 Left 2
SYMATTR InstName I2
SYMATTR Value 10µ
SYMBOL current 32 288 R0
WINDOW 123 0 0 Left 2
WINDOW 39 0 0 Left 2
SYMATTR InstName I3
SYMATTR Value 10µ
SYMBOL voltage 720 64 R0
WINDOW 123 0 0 Left 2
WINDOW 39 0 0 Left 2
SYMATTR InstName V1
SYMATTR Value 6
SYMBOL voltage 240 400 R0
WINDOW 123 0 0 Left 2
WINDOW 39 0 0 Left 2
SYMATTR InstName V2
SYMATTR Value -6
SYMBOL res 160 0 R0
SYMATTR InstName R1
SYMATTR Value 5k
SYMBOL res 304 0 R0
SYMATTR InstName R2
SYMATTR Value 5k
SYMBOL voltage -224 112 R0
WINDOW 123 24 124 Left 2
WINDOW 39 0 0 Left 2
SYMATTR InstName V3
SYMATTR Value ""
SYMATTR Value2 AC 1
SYMBOL res -48 112 R90
WINDOW 0 0 56 VBottom 2
WINDOW 3 32 56 VTop 2
SYMATTR InstName R3
SYMATTR Value 10k
SYMBOL res 640 112 R90
WINDOW 0 0 56 VBottom 2
WINDOW 3 32 56 VTop 2
SYMATTR InstName R4
SYMATTR Value 10k
TEXT 8 -120 Left 2 !.model t2n3904 npn\n\n+(is=0.5f bf=200 cje=8.0p cjc=0.5p mjc=.5 vjc=.7 mje=.5 vje=.7 tf=212.5p)
TEXT -258 536 Left 2 !.ac dec 50 10 100meg
